20

C         -2.66956       -0.50414       -0.00000
H         -1.59956       -0.50414        0.00000
H         -3.02622       -1.33658       -0.56986
H         -3.02623        0.40559       -0.43598
H         -3.02623       -0.58144        1.00584
C          4.89193        2.67060        0.00000
H          5.96193        2.67060        0.00000
H          4.53527        1.91977        0.67376
H          4.53527        2.46252       -0.98711
H          4.53526        3.62950        0.31336
C          8.82883       -5.63301        0.00000
H          9.89883       -5.63301        0.00000
H          8.47217       -6.60413        0.27316
H          8.47216       -5.38401       -0.97759
H          8.47216       -4.91089        0.70444
C        -13.50917        7.91473        0.00000
H        -12.43917        7.91473        0.00000
H        -13.86584        7.32701       -0.81992
H        -13.86584        8.91867       -0.09902
H        -13.86584        7.49852        0.91894
